data/state_estimation/SE_PT2030_Su/state_estimation_PT2030_Su_t2.csv
bus,vm_pu,va_degree,p_mw,q_mvar
1,1.028142,0.106211,-0.722471,-26.208283
2,1.027237,0.179754,-0.644556,-29.679865
3,1.039050,0.092804,-0.570392,0.448130
4,1.035535,-0.047178,-0.694652,-47.401636
5,1.013974,0.041516,-166.212730,16.903580
6,1.015518,0.070266,-0.705828,-1.296205
7,1.035288,-0.050309,-0.662061,30.781120
8,1.001190,0.011635,-0.697700,-0.030741
9,1.023599,-0.076047,-0.588845,0.056545
10,1.034799,-0.069614,-0.707827,-0.012258
11,1.016006,-0.082800,-0.996430,0.002423
12,1.015833,-0.071644,-0.658608,-0.021902
13,1.023076,-0.074502,-1.550981,0.019866
14,1.025139,-0.072116,-0.646386,-0.006940
15,1.037806,-0.044534,-0.583998,-0.054347
16,1.000487,0.126162,-0.558754,-0.049871
17,1.012975,0.077013,-0.546761,0.050563
18,1.008120,0.040740,-0.597095,-0.014541
19,1.009985,-0.110026,-0.584659,-0.044348
20,1.017576,-0.082135,-0.608742,-0.099127
21,1.010885,0.070170,-0.672554,-0.044855
22,1.029653,-0.049181,56.698214,-19.898975
23,1.008841,-0.083655,-0.653131,0.012641
24,1.019182,0.083299,-0.639849,0.032448
25,1.006721,0.057051,-0.597906,0.019626
26,1.037052,-0.059107,-0.942748,0.150908
27,1.031541,-0.059578,-0.939256,0.175321
28,1.028523,-0.051751,-1.056643,0.801576
29,1.024245,-0.054913,-0.655832,0.019508
30,1.013689,0.082291,30.368885,-18.338883
31,1.014850,0.092019,-0.560040,0.112678
32,1.014896,0.073737,-0.720804,-0.029618
33,1.015292,0.085762,-0.519158,-0.018838
34,1.022304,-0.057531,-0.661770,-0.048882
35,1.006224,0.038712,-0.580332,-0.021216
36,1.008135,0.009279,-0.588655,-0.118259
37,1.019856,-0.045874,-0.556097,0.079293
38,1.009056,0.077781,-0.609433,0.009376
39,1.012534,0.041297,-0.617497,0.002949
40,1.016116,0.071590,-0.545111,0.035354
41,1.010095,0.072287,-0.643147,0.012529
42,1.013082,0.060918,-0.613520,0.005320
43,1.019893,-0.049076,-0.579736,0.009760
44,1.006623,0.073076,-0.612921,0.068608
45,1.016627,-0.002179,-0.509461,-0.079930
46,1.015967,-0.023007,-0.579077,0.012978
47,1.009214,0.101148,-0.707069,-0.087763
48,1.007783,0.061766,-0.582418,-0.030788
49,1.009575,0.088872,-0.659870,0.001137
50,1.020536,-0.045277,-166.254790,0.061954
51,1.012442,0.111130,-0.655926,0.042210
52,1.017943,0.020812,-0.683151,0.051096
53,1.008332,0.071274,-0.657738,0.025979
54,1.013432,0.248645,-0.582618,0.046776
55,1.018797,-0.050848,-0.496275,0.079181
56,1.020733,-0.053405,-0.631549,0.018268
57,1.008538,0.086462,-0.611617,-0.015991
58,1.020242,-0.052020,-0.576511,-0.023357
59,1.021370,-0.048423,-0.599381,-0.023606
60,1.009719,0.094278,-0.483848,0.003016
61,1.009426,0.103026,89.462411,-21.250853
62,1.016238,0.091871,-0.597275,-0.075069
63,1.013712,0.219547,-0.529394,-0.105634
64,1.010703,-0.016650,-0.678446,0.041385
65,1.016755,0.072119,-0.554836,0.030182
66,1.009557,0.094415,-0.569296,-0.024479
67,1.010340,0.090119,-0.873211,0.138640
68,1.008386,0.071842,-0.604873,0.018570
69,1.012442,0.062596,-0.618196,-0.043945
70,1.012553,0.085074,-0.645691,-0.046612
71,1.013396,0.036023,-0.532417,0.029487
72,1.012354,0.092081,-0.475408,-0.014120
73,1.013838,0.174268,-0.594097,-0.045928
74,1.014150,-0.026670,-0.528727,-0.006216
75,1.010654,0.132721,-0.589168,-0.014926
76,1.018871,-0.050438,-0.637031,0.015935
77,1.011917,0.213595,-0.611410,-0.014737
78,1.011643,0.052352,-0.621871,-0.010634
79,1.014028,0.145286,-0.629059,-0.094656
80,1.039369,-0.044065,-0.589638,-0.053269
81,1.025044,0.081813,-0.643071,-0.007554
82,1.039158,-0.014918,-0.539675,-0.020457
83,1.039221,0.061837,-0.618760,-0.100464
84,1.039492,-0.033620,-0.596399,-0.062010
85,1.031880,0.035042,-0.601566,0.022605
86,1.039688,-0.037372,-0.498297,0.033036
87,1.041538,-0.030041,-0.599377,0.043575
88,1.024948,0.089770,-0.703389,0.110906
89,1.039326,-0.019880,-0.599126,0.108898
90,1.025920,0.115656,-0.689732,-0.005679
91,1.023961,0.092732,-0.653050,0.000846
92,1.022684,0.081379,-0.531633,0.030445
93,1.025522,0.086725,-0.605018,-0.052105
94,1.026608,0.083620,-0.610494,-0.036756
95,1.035850,0.074118,-0.692140,-0.035296
96,1.028043,0.107382,-0.563403,-0.026277
97,1.040143,-0.033651,-0.520067,0.069292
98,1.039110,0.093774,-0.546438,0.007782
99,1.041773,0.097768,-0.642786,-0.016732
100,1.042407,-0.000047,-0.619048,-0.016151
101,1.029256,0.078000,-0.542356,-0.025374
102,1.027425,-0.043305,-0.610470,0.003759
103,1.029339,0.093897,-0.559792,-0.055615
104,1.022664,0.094065,-0.561987,0.041849
105,1.037232,-0.047555,-0.627272,0.086544
106,1.027593,0.180557,-0.648832,-0.066853
107,1.028473,-0.050323,-0.574646,-0.028974
108,1.003702,0.063953,-9.494610,2.393053
109,1.007075,-0.038056,-158.414394,-33.671356
110,1.018485,-0.084241,-131.880751,-19.151179
111,1.012140,0.047764,-94.643946,-2.928567
112,1.018448,-0.117310,-183.441381,-16.699961
113,1.024143,-0.120391,-112.315936,-3.758059
114,1.010042,0.029121,-40.656136,-17.840999
115,1.006934,0.068019,-21.131116,42.448203
116,1.007941,0.023342,-233.478195,-24.759440
117,1.010272,-0.100401,-36.501108,-12.674400
118,1.009856,0.059154,-5.731367,-14.189060
119,1.026470,-0.047777,-116.669081,-62.389532
120,1.007765,0.039434,-145.258115,0.184026
121,1.010280,-0.101442,-122.953093,-33.754442
122,1.024430,0.040637,-73.739948,-42.151606
123,1.020720,-0.099469,-111.481871,-34.197471
124,1.014845,-0.030628,-95.679526,-1.894153
125,1.012319,-0.048554,-88.763096,-27.764316
126,1.028436,-0.064310,-103.658328,0.134408
127,1.007312,0.084485,-52.695226,5.965497
128,1.016693,0.074685,-40.631838,-36.863102
129,1.009214,0.023805,-122.196274,-24.322546
130,1.007122,0.050632,-176.691702,-17.005823
131,1.023392,-0.061567,-141.249223,-32.104903
132,1.008969,0.029176,-6.442891,4.142269
133,1.001828,0.002160,-137.356478,40.590075
134,1.006350,0.030709,-119.604685,-2.585464
135,1.025698,-0.078259,-129.427832,-7.945679
136,1.018623,-0.093814,-146.674745,-46.076245
137,1.020306,0.039242,-92.983178,6.600837
138,1.007725,0.076006,-73.941159,-12.907440
139,1.016412,-0.091362,-140.013913,-17.813020
140,1.010090,-0.143837,-62.080627,-18.003696
141,1.014053,-0.113608,-69.801784,-21.463942
142,1.012178,0.029557,-83.723857,-4.255603
143,1.012954,-0.078600,-58.706797,-4.977663
144,1.006850,0.069964,-46.033152,6.665011
145,1.011601,0.047134,-177.172874,9.273826
146,1.014436,-0.050444,-1.274395,-1.918882
147,1.018153,-0.068367,-37.244396,-15.875746
148,1.002593,0.132375,-0.632365,0.006939
149,1.007506,-0.127599,-146.320571,-34.900518
150,1.013095,-0.041552,-162.258653,14.551259
151,1.003415,0.015440,-133.472614,-46.114360
152,1.014424,0.072577,-48.831260,2.093215
153,1.009628,0.214255,-6.343271,9.138000
154,1.006575,-0.052610,-79.788969,-16.147804
155,1.011226,0.076025,12.179656,2.653914
156,1.007559,0.086204,-17.096527,15.631208
157,1.009297,0.028871,-79.118773,2.276640
158,1.020212,0.058273,-44.664141,0.448306
159,1.024966,-0.030229,54.241632,21.078959
160,1.017756,0.072820,-47.371651,2.839098
161,1.012100,0.040361,9.778483,15.003119
162,1.014023,0.091774,-0.202043,8.901502
163,1.010803,0.080591,-12.205824,19.726615
164,1.025094,-0.055619,-19.799655,8.105738
165,1.001863,0.169218,13.364427,5.919509
166,1.003444,-0.030987,-11.737760,-28.073402
167,1.004403,0.125443,-22.767801,47.961178
168,1.020684,-0.059250,-91.400860,-58.823737
169,1.024918,-0.016705,87.296599,30.766989
170,1.009907,0.042647,-19.211782,13.431917
171,1.011133,0.011342,-36.308892,-8.310207
172,1.002997,0.134538,-21.006905,15.466343
173,1.014540,0.089483,71.380294,-14.060735
174,1.014866,0.087536,20.437933,-2.538740
175,1.020614,0.044085,53.409665,-2.207293
176,1.017394,0.032833,21.377179,27.361769
177,1.015365,0.085912,-0.606639,-0.288577
178,1.001958,0.135567,28.435036,-2.021695
179,1.013873,0.086279,30.665754,-8.416711
180,1.023453,-0.073759,-0.616751,0.052355
181,1.019873,0.094545,65.415413,-18.426291
182,1.014542,0.085880,-0.637389,-7.088538
183,1.041237,-0.027023,117.413716,13.376654
184,1.013992,0.081467,-0.562196,0.081307
185,1.028429,-0.066590,-0.499716,-0.001697
186,1.019494,-0.091996,-0.638745,0.068546
187,1.008460,0.009835,25.874217,-7.960862
188,1.008879,0.010823,25.932596,-10.810980
189,1.007567,0.009890,25.980630,-10.828689
190,1.007226,0.073184,-0.514494,0.053752
191,1.013385,0.260215,183.884460,-29.527414
192,1.012707,0.235605,119.406038,-24.867827
193,1.009440,0.092338,-0.550425,0.059688
194,1.013534,0.139948,119.449564,-20.534636
195,1.012233,0.043562,-0.630691,-10.829356
196,1.015063,0.072268,92.323714,-54.830610
197,1.013364,0.109419,-0.590130,-0.049060
198,1.015616,0.071178,-0.611653,-2.300067
199,1.018889,0.021078,-0.616392,0.078851
200,1.012653,0.249982,31.947805,-6.644179
201,1.012987,0.248695,31.888158,-6.614470
202,1.013159,0.248927,31.913552,-6.640584
203,1.013190,0.250128,122.033082,-19.058474
204,1.019557,-0.048755,-0.642081,-0.013788
205,1.020480,-0.050045,-0.607456,0.007534
206,1.008477,0.093062,34.338606,-9.715080
207,1.008552,0.093062,34.439858,-8.045035
208,1.010150,0.079482,-0.562599,-0.017095
209,1.009928,0.078806,-0.542692,0.020947
210,1.010725,0.078937,-0.637108,0.102544
211,1.010197,0.080516,-0.558242,-0.035425
212,1.018358,0.104505,-0.647613,0.072937
213,1.019873,-0.045913,-0.622802,0.041031
214,1.019234,-0.044806,-0.605125,0.006065
215,1.019246,-0.045908,-0.763998,0.020643
216,1.019734,-0.045709,-0.573168,-0.015637
217,1.021355,-0.047211,-0.647507,-0.114098
218,1.009854,0.096217,99.917524,-47.568351
219,1.019543,-0.051698,-0.639624,-0.034315
220,1.009769,0.099469,593.401221,-8.096180
221,1.009026,0.097435,-0.507531,-0.037728
222,1.016064,-0.022524,234.599443,21.277087
223,1.012482,0.061580,-0.561096,-0.017989
224,1.009181,0.102058,-0.627232,-0.001555
225,1.028667,0.185526,94.918327,1.061661
226,1.044072,-0.030713,-0.662232,-0.082054
227,1.037841,-0.048003,-0.605017,-39.998222
228,1.038542,-0.047033,-0.684009,2.712998
229,1.022788,0.093601,-0.593315,15.993579
230,1.023519,0.093679,-0.579532,1.065827
231,1.028002,0.115576,-0.524616,7.283710
232,1.026845,0.107365,156.963950,-5.523775
233,1.027931,0.107695,156.889226,-6.215512
234,1.042526,-0.027294,117.469078,-13.723799
235,1.042479,-0.027514,117.446852,-13.838644
236,1.041473,-0.027572,117.410351,-13.812922
237,1.041329,0.096699,114.586662,3.255512
238,1.042127,0.096373,114.599542,3.245631
239,1.043429,0.000287,234.539060,8.079333
240,1.042904,0.000368,234.538329,56.724813
241,1.036000,0.078925,247.288479,-12.061524
242,1.035038,0.077822,247.250615,-11.442288
243,1.042441,0.097161,250.515026,4.488110
244,1.041656,0.096930,250.522921,3.270864
245,1.027075,-0.053516,-9.474925,-1.694875
246,1.023994,-0.073343,-5.009490,-0.140305
247,1.018927,-0.092251,-1.063843,0.412937
248,1.017366,0.088277,-0.851172,0.589930
249,1.024659,-0.073650,-3.262697,0.061590
250,1.037025,-0.044228,-2.355592,-10.503172
251,1.014296,0.086143,37.259794,1.614864
252,1.022293,0.116231,50.555649,-5.795163
253,1.018816,0.114162,40.310180,-2.675614
254,1.017791,0.089202,30.193139,0.122962
255,1.036665,-0.047583,-28.986294,7.499493
256,1.006793,0.072122,-92.637755,-12.358068
257,1.015160,0.066131,-0.977753,0.737590
258,1.011733,0.044266,-0.981341,1.366466
259,1.018459,0.080849,-1.021611,1.083326
260,0.988945,-0.068981,-101.476228,-38.646966
261,1.015307,0.091423,-0.999161,1.289510
262,1.014163,0.065071,25.662630,4.238887
263,1.017495,0.109042,53.757099,-7.075279
264,1.010265,0.103639,25.879138,-8.060717
265,1.012463,0.061966,58.031895,-7.976508
266,1.017717,0.103385,66.032164,-7.493913
267,1.009354,0.132283,40.890322,-79.775571
268,1.027776,0.116730,36.319077,25.233106
269,1.005772,0.089666,-0.550293,0.041542
270,1.006404,0.090115,-0.577774,-0.009490
271,1.005692,0.107104,-0.551332,-0.046566
272,1.003075,0.147267,-0.545648,-0.040007
273,1.007770,0.055347,29.448400,-7.190367
274,1.007559,0.053789,-0.595782,-0.003807
275,1.008091,0.052221,-0.705391,-0.021562
276,1.008235,0.035629,-0.609826,-0.009512
277,1.006623,0.034354,-0.593076,0.046158
278,1.008496,0.031096,-0.655491,0.049640
279,1.008187,0.025484,-0.557466,-0.005331
280,1.007294,0.050852,-0.642997,0.096569
281,1.006393,0.053390,-0.504537,0.041028
282,1.006906,0.054498,-0.545746,0.017810
283,1.009013,0.029142,-0.624476,-0.057706
284,1.011257,0.041756,-0.503773,-0.007007
285,1.011813,0.042050,-0.606292,0.012917
286,1.013368,0.046845,-0.661555,-0.020554
287,1.002656,0.005102,-0.564981,-0.074990
288,1.002638,0.005014,-0.632886,-0.021571
289,1.004741,0.012277,-0.579749,-0.048482
290,1.005447,0.019346,-0.634376,0.050433
291,1.005599,0.018785,-0.611239,0.004971
292,1.005349,0.019696,-0.539695,0.064668
293,1.007534,0.032025,22.544391,-7.124772
294,1.003814,0.129350,-0.583113,0.073130
295,1.002939,0.127027,-0.560807,-0.021014
296,1.003329,0.125187,-0.665454,0.007979
297,1.004735,0.126481,-0.588771,-0.094103
298,1.002704,0.158150,-0.561642,0.059958
299,1.003078,0.157899,-0.546021,0.007384
300,1.003379,0.158141,-0.657119,0.095554
301,1.002633,0.150430,-0.586621,0.048989
302,1.003179,0.142882,-0.585465,0.000292
303,1.004019,0.137544,-0.579299,-0.097167
304,1.002721,0.136913,-0.574928,0.005157
